Circuit: * C:\Users\track\Documents\github\weather-station-project\ltpsice\final\iot-projekti-wind-speed final.asc

WARNING: Less than two connections to node n004.  This node is used by r6.
Direct Newton iteration failed to find .op point.  (Use ".option noopiter" to skip.)
Starting Gmin stepping
Gmin = 10
Gmin = 1.07374
Gmin = 0.115292
Gmin = 0.0123794
Gmin = 0.00132923
Gmin = 0.000142725
Gmin = 1.5325e-05
Gmin = 1.6455e-06
Gmin = 1.76685e-07
Gmin = 1.89714e-08
Gmin = 2.03704e-09
Gmin = 2.18725e-10
Gmin = 2.34854e-11
Gmin = 2.52173e-12
Gmin = 2.70769e-13
Gmin = 0
Gmin stepping succeeded in finding the operating point.


Date: Thu Apr  6 16:27:43 2023
Total elapsed time: 0.295 seconds.

tnom = 27
temp = 27
method = modified trap
totiter = 9056
traniter = 8661
tranpoints = 3517
accept = 3038
rejected = 479
matrix size = 24
fillins = 15
solver = Normal
Avg thread counts: 1.1/1.2/1.2/1.1
Matrix Compiler1: 1.95 KB object code size  1.0/0.8/[0.3]
Matrix Compiler2: 2.37 KB object code size  0.5/1.4/[0.3]

