Circuit: * C:\Users\track\Documents\LTspiceXVII\iot-projekti-wind-speed.asc

WARNING: Less than two connections to node N004.  This node is used by R6.
Direct Newton iteration failed to find .op point.  (Use ".option noopiter" to skip.)
Starting Gmin stepping
Gmin = 10
Gmin = 1.07374
Gmin = 0.115292
Gmin = 0.0123794
Gmin = 0.00132923
Gmin = 0.000142725
Gmin = 1.5325e-005
Gmin = 1.6455e-006
Gmin = 1.76685e-007
Gmin = 1.89714e-008
Gmin = 2.03704e-009
Gmin = 2.18725e-010
Gmin = 2.34854e-011
Gmin = 2.52173e-012
Gmin = 2.70769e-013
Gmin = 0
Gmin stepping succeeded in finding the operating point.


Date: Fri Jan 27 11:54:04 2023
Total elapsed time: 0.148 seconds.

tnom = 27
temp = 27
method = modified trap
totiter = 9136
traniter = 8736
tranpoints = 3592
accept = 3046
rejected = 546
matrix size = 23
fillins = 13
solver = Normal
Thread vector: 5.2/3.9[2] 3.4/4.0[1] 0.8/1.6[1] 0.1/0.8[1]  2592/500
Matrix Compiler1: 1.81 KB object code size  0.5/0.4/[0.2]
Matrix Compiler2: off  [0.2]/0.3/0.2

