Circuit: * C:\Users\track\Documents\github\weather-station-project\ltpsice\iot-projekti-wind-direction.asc

WARNING: Less than two connections to node n006.  This node is used by r6.
Direct Newton iteration failed to find .op point.  (Use ".option noopiter" to skip.)
Starting Gmin stepping
Gmin = 10
Gmin = 1.07374
Gmin = 0.115292
Gmin = 0.0123794
Gmin = 0.00132923
Gmin = 0.000142725
Gmin = 1.5325e-05
Gmin = 1.6455e-06
Gmin = 1.76685e-07
Gmin = 1.89714e-08
Gmin = 2.03704e-09
Gmin = 2.18725e-10
Gmin = 2.34854e-11
Gmin = 2.52173e-12
Gmin = 2.70769e-13
Gmin = 0
Gmin stepping succeeded in finding the operating point.


Date: Fri Feb 10 11:34:40 2023
Total elapsed time: 0.147 seconds.

tnom = 27
temp = 27
method = modified trap
totiter = 2673
traniter = 2276
tranpoints = 1065
accept = 1049
rejected = 16
matrix size = 30
fillins = 28
solver = Normal
Avg thread counts: 1.3/1.6/1.6/1.3
Matrix Compiler1: 3.05 KB object code size  0.8/1.4/[0.4]
Matrix Compiler2: 3.25 KB object code size  0.4/0.8/[0.4]

